OPT_V9/Results/My_campus_w_initial_sub_3_active_27_03_15_53/powerflow_results_t1.txt
Pandapower Network Debug Info
==================================================

BUS:
       vm_pu  va_degree      p_mw    q_mvar
0   1.007699   0.195752 -0.003556 -0.003541
1   1.011959   0.384845 -0.004073 -0.000007
2   1.014838   0.512020 -0.003232  0.000000
3   1.009726   0.285647 -0.003066  0.000000
4   1.004442   0.264660 -0.003393  0.000861
5   1.003575   0.204531 -0.000973  0.001336
6   1.007694   0.328196 -0.004182 -0.000754
7   1.002837   0.047550 -0.003239 -0.001311
8   1.001154   0.021605 -0.001954 -0.002902
9   0.999971   0.001999 -0.001711  0.008720
10  0.999964   0.002102  0.000004  0.007915
11  0.999957   0.002026  0.010004  0.005086
12  0.999965   0.000762  0.000728  0.005086
13  0.999954   0.000387  0.009156  0.005434
14  0.999949   0.000180  0.009488  0.000000
15  0.999991   0.001323  0.000000  0.000000
16  0.999991   0.001321  0.000000  0.000000
17  0.999966   0.000672  0.000000  0.000000
18  0.999966   0.000671  0.000000  0.000000
19  1.000000   0.000000  0.005470 -0.023282
20  1.000000   0.000003  0.000000  0.000000
21  1.000000   0.000000 -0.005716 -0.012801
22  1.000000   0.000002  0.000000  0.000000
--------------------------------------------------

LINE:
    p_from_mw   q_from_mvar   p_to_mw     q_to_mvar         pl_mw       ql_mvar  i_from_ka   i_to_ka      i_ka  vm_from_pu  va_from_degree  vm_to_pu  va_to_degree  loading_percent
0   -0.005480  1.928250e-02  0.005480 -1.928219e-02  3.930536e-07  3.064704e-07   0.000772  0.000772  0.000772    1.000000        0.000003  0.999991      0.001323         0.335465
1    0.005706  8.800548e-03 -0.005706 -8.800318e-03  2.959156e-07  2.307302e-07   0.000404  0.000404  0.000404    1.000000        0.000002  0.999966      0.000672         0.175525
2    0.008297  2.172124e-02 -0.008297 -2.172092e-02  4.180870e-07  3.259893e-07   0.000895  0.000895  0.000895    0.999991        0.001323  0.999971      0.001999         0.389121
3    0.000728  5.085856e-03 -0.000728 -5.085849e-03  9.129164e-09  7.118160e-09   0.000198  0.000198  0.000198    0.999966        0.000672  0.999965      0.000762         0.085982
4    0.018644  5.434268e-03 -0.018644 -5.434107e-03  2.062291e-07  1.608002e-07   0.000748  0.000748  0.000748    0.999966        0.000672  0.999954      0.000387         0.325000
5   -0.013787 -3.438982e-03  0.013882  3.512619e-03  9.443987e-05  7.363632e-05   0.020510  0.020510  0.020510    0.999991        0.001321  1.007699      0.195752         8.917354
6   -0.005120  6.105459e-04  0.005140 -5.944641e-04  2.062521e-05  1.608182e-05   0.007442  0.007442  0.007442    0.999966        0.000671  1.003575      0.204531         3.235720
7   -0.003231 -1.304665e-03  0.003239  1.311061e-03  8.202520e-06  6.395640e-06   0.005029  0.005029  0.005029    0.999966        0.000671  1.002837      0.047550         2.186644
8   -0.005326 -2.025570e-03  0.005332  2.029923e-03  5.583502e-06  4.353549e-06   0.008225  0.008225  0.008225    0.999966        0.000671  1.001154      0.021605         3.576182
9   -0.010008 -1.300076e-02  0.010008  1.300083e-02  9.309548e-08  7.258808e-08   0.000632  0.000632  0.000632    0.999964        0.002102  0.999971      0.001999         0.274573
10  -0.010004 -5.085856e-03  0.010004  5.085904e-03  6.159789e-08  4.802889e-08   0.000432  0.000432  0.000432    0.999957        0.002026  0.999964      0.002102         0.187810
11  -0.009488 -1.375201e-13  0.009488  3.433325e-08  4.403282e-08  3.433311e-08   0.000365  0.000365  0.000365    0.999949        0.000180  0.999954      0.000387         0.158790
12   0.007296  2.215969e-07 -0.007265  2.375681e-05  3.075273e-05  2.397841e-05   0.010406  0.010406  0.010406    1.011959        0.384845  1.007699      0.195752         4.524495
13   0.003066  1.563871e-09 -0.003060  4.800019e-06  6.158114e-06  4.801583e-06   0.004383  0.004383  0.004383    1.009726        0.285647  1.007699      0.195752         1.905855
14   0.003232  4.550142e-09 -0.003223  7.148467e-06  9.173870e-06  7.153017e-06   0.004597  0.004597  0.004597    1.014838        0.512020  1.011959      0.384845         1.998486
15  -0.003378  8.720748e-04  0.003393 -8.605543e-04  1.477524e-05  1.152050e-05   0.005030  0.005030  0.005030    1.001154        0.021605  1.004442      0.264660         2.186842
16   0.004182  7.538507e-04 -0.004167 -7.417777e-04  1.548379e-05  1.207297e-05   0.006087  0.006087  0.006087    1.007694        0.328196  1.003575      0.204531         2.646521
--------------------------------------------------

TRAFO:
    p_hv_mw  q_hv_mvar   p_lv_mw  q_lv_mvar    pl_mw  ql_mvar   i_hv_ka   i_lv_ka  vm_hv_pu  va_hv_degree  vm_lv_pu  va_lv_degree  loading_percent
0 -0.013777  -0.002439  0.013787   0.003439  0.00001    0.001  0.000539  0.020510  0.999991      0.001323  0.999991      0.001321         0.142097
1 -0.013667  -0.001720  0.013677   0.002720  0.00001    0.001  0.000530  0.020128  0.999966      0.000672  0.999966      0.000671         0.139449
2 -0.005470   0.023282  0.005480  -0.019283  0.00001    0.004  0.000197  0.000772  1.000000      0.000000  1.000000      0.000003         0.059791
3  0.005716   0.012801 -0.005706  -0.008801  0.00001    0.004  0.000116  0.000404  1.000000      0.000000  1.000000      0.000002         0.035047
--------------------------------------------------
